
**** 11/20/22 22:03:51 ******* PSpice Lite (March 2016) ******* ID# 10813 ****

 ** Profile: "SCHEMATIC1-temp"  [ D:\Proiect 1\Preamplificator_Radu\Schema\filtru_N_2-PSpiceFiles\SCHEMATIC1\temp.sim ] 


 ****     CIRCUIT DESCRIPTION


******************************************************************************




** Creating circuit file "temp.cir" 
** WARNING: THIS AUTOMATICALLY GENERATED FILE MAY BE OVERWRITTEN BY SUBSEQUENT SIMULATIONS

*Libraries: 
* Profile Libraries :
* Local Libraries :
.LIB "../../../lib_modelepspice_anexa_1_a/modele_a1_lib/mmbfj309lt1g.lib" 
.LIB "../../../lib_modelepspice_anexa_1_a/modele_a1_lib/mmbfj177lt1g.lib" 
.LIB "../../../lib_modelepspice_anexa_1_a/modele_a1_lib/mjd32cg.lib" 
.LIB "../../../lib_modelepspice_anexa_1_a/modele_a1_lib/mjd31cg.lib" 
.LIB "../../../lib_modelepspice_anexa_1_a/modele_a1_lib/irfr120npbf.lib" 
.LIB "../../../lib_modelepspice_anexa_1_a/modele_a1_lib/bzx84c10.lib" 
.LIB "../../../lib_modelepspice_anexa_1_a/modele_a1_lib/bzx84c8v2.lib" 
.LIB "../../../lib_modelepspice_anexa_1_a/modele_a1_lib/bzx84c6v8.lib" 
.LIB "../../../lib_modelepspice_anexa_1_a/modele_a1_lib/bzx84c6v2.lib" 
.LIB "../../../lib_modelepspice_anexa_1_a/modele_a1_lib/bzx84c5v6.lib" 
.LIB "../../../lib_modelepspice_anexa_1_a/modele_a1_lib/bzx84c5v1.lib" 
.LIB "../../../lib_modelepspice_anexa_1_a/modele_a1_lib/bzx84c2v7.lib" 
.LIB "../../../lib_modelepspice_anexa_1_a/modele_a1_lib/bc856b.lib" 
.LIB "../../../lib_modelepspice_anexa_1_a/modele_a1_lib/bc846b.lib" 
.LIB "../../../lib_modelepspice_anexa_1_a/modele_a1_lib/bc817-25.lib" 
.LIB "../../../lib_modelepspice_anexa_1_a/modele_a1_lib/bc807-25.lib" 
.LIB "../../../lib_modelepspice_anexa_1_a/modele_a1_lib/1n4148.lib" 
* From [PSPICE NETLIST] section of C:\SPB_DATA\cdssetup\OrCAD_PSpice\17.2.0\PSpice.ini file:
.lib "C:\Users\radub\OneDrive\Desktop\Lib_ModelePSpice_Anexa_1\Modele_A1_lib\MMBFJ309LT1G.lib" 
.lib "C:\Users\radub\OneDrive\Desktop\Lib_ModelePSpice_Anexa_1\Modele_A1_lib\MMBFJ177LT1G.lib" 
.lib "C:\Users\radub\OneDrive\Desktop\Lib_ModelePSpice_Anexa_1\Modele_A1_lib\BC846B.lib" 
.lib "C:\Users\radub\OneDrive\Desktop\Lib_ModelePSpice_Anexa_1\Modele_A1_lib\BC817-25.lib" 
.lib "C:\Users\radub\OneDrive\Desktop\Lib_ModelePSpice_Anexa_1\Modele_A1_lib\BC807-25.lib" 
.lib "C:\Users\radub\OneDrive\Desktop\Lib_ModelePSpice_Anexa_1\Modele_A1_lib\1N4148.lib" 
.lib "nomd.lib" 

*Analysis directives: 
.AC DEC 10 10Hz 1MHz
----------------$
ERROR(ORPSIM-16103): Invalid value
.TEMP 0 27 70
.OPTIONS ADVCONV
.PROBE64 V(alias(*)) I(alias(*)) W(alias(*)) D(alias(*)) NOISE(alias(*)) 
.INC "..\SCHEMATIC1.net" 



**** INCLUDING SCHEMATIC1.net ****
* source FILTRU_N_2
Q_Q6         N08809 N08809 N09069 QBC807-25 
Q_Q10         N09093 N08855 N09127 QBC807-25 
C_C1         N14371 N09121  470n  TC=0,0 
Q_Q7         N08855 N08805 N09069 QBC807-25 
C_C3         N09121 N09127  100p  TC=0,0 
V_V2         0 N09093 12
Q_Q5         N08805 N08809 N09069 QBC807-25 
V_V3         INTRARE 0  AC 1
+SIN 0 10m 2k 0 0 0
R_R5         N092651 N091091  15k TC=0,0 
Q_Q2         N08805 0 N09525 QBC817-25 
R_RL         0 N09381  600 TC=0,0 
R_R2         N091091 N09121  150k TC=0,0 
R_R1         N09307 INTRARE  1.5k TC=0,0 
Q_Q9         N09069 N08855 N09127 QBC817-25 
Q_Q1         N08809 N09121 N09525 QBC817-25 
V_V1         N09069 0 12
J_Q11         N09525 N09093 N10004 JMMBFJ309LT1 
R_R7         N10004 N09093  100 TC=0,0 
J_Q12         N08855 N09093 N11361 JMMBFJ309LT1 
R_R8         N11361 N09093  100 TC=0,0 
X_R9         N09307 N09307 N14371 POT PARAMS: SET=0.5 VALUE=500
R_R10         N09127 N092651  3.9k TC=0,0 
C_C4         N09121 N09127  47p  TC=0,0 
C_C5         N09121 N09127  10p  TC=0,0 
C_C6         N09127 N09381  1u  TC=0,0 
X_D1         N09069 N138640 awb1n4148 PARAMS:                
X_D2         N138640 N138950 awb1n4148 PARAMS:                
X_D3         N138950 N13921 awb1n4148 PARAMS:                
R_R12         N140301 N140300  100 TC=0,0 
R_R13         N140300 N140530  100 TC=0,0 
R_R14         N140530 0  100 TC=0,0 
R_R15         N14199 N140301  100 TC=0,0 
R_R16         N13921 N14199  100 TC=0,0 
C_C7         N14371 N09121  10n  TC=0,0 

**** RESUMING temp.cir ****
.END
